@<TRIPOS>MOLECULE
data/3L4W_MIG/MIG.pdb
 31 31 0 0 0
SMALL
GASTEIGER

@<TRIPOS>ATOM
      1  OAA       42.5010   89.4750   34.0700 O.3   1001  MIG1001    -0.3937
      2  OAB       43.5400   94.0540   36.2930 O.3   1001  MIG1001    -0.3934
      3  OAC       47.3420   92.1970   32.1470 O.3   1001  MIG1001    -0.3879
      4  OAD       48.4860   93.7590   34.4000 O.3   1001  MIG1001    -0.3866
      5  OAE       47.2460   93.4380   36.8280 O.3   1001  MIG1001    -0.3875
      6  CAF       43.2230   90.2150   35.0500 C.3   1001  MIG1001     0.0569
      7  CAG       44.2640   92.9360   36.8730 C.3   1001  MIG1001     0.0622
      8  CAH       43.2040   91.6700   34.5750 C.3   1001  MIG1001     0.0226
      9  CAI       45.3800   91.6950   33.4780 C.3   1001  MIG1001     0.0280
     10  CAJ       46.5700   92.6560   33.2520 C.3   1001  MIG1001     0.0962
     11  CAK       47.3930   92.8210   34.5360 C.3   1001  MIG1001     0.1095
     12  CAL       46.4630   93.3330   35.6540 C.3   1001  MIG1001     0.1011
     13  CAM       45.2510   92.3900   35.8350 C.3   1001  MIG1001     0.0622
     14  NAN       44.5500   92.2830   34.5170 N.3   1001  MIG1001    -0.2901
     15 H          42.4810   88.5385   34.3219 H     1001  MIG1001     0.2095
     16 H          42.9127   94.4057   36.9440 H     1001  MIG1001     0.2095
     17 H          46.7715   92.1119   31.3671 H     1001  MIG1001     0.2099
     18 H          49.0861   93.4570   33.7003 H     1001  MIG1001     0.2100
     19 H          47.9914   94.0374   36.6669 H     1001  MIG1001     0.2100
     20 H          44.2297   89.8589   35.1183 H     1001  MIG1001     0.0570
     21 H          42.7850   90.1129   36.0209 H     1001  MIG1001     0.0570
     22 H          44.7994   93.2654   37.7389 H     1001  MIG1001     0.0573
     23 H          43.5759   92.1676   37.1576 H     1001  MIG1001     0.0573
     24 H          42.7733   91.7024   33.5960 H     1001  MIG1001     0.0449
     25 H          42.6310   92.2285   35.2854 H     1001  MIG1001     0.0449
     26 H          45.7365   90.7360   33.7913 H     1001  MIG1001     0.0453
     27 H          44.8222   91.5590   32.5751 H     1001  MIG1001     0.0453
     28 H          46.2088   93.6336   33.0098 H     1001  MIG1001     0.0633
     29 H          47.8144   91.8637   34.7618 H     1001  MIG1001     0.0646
     30 H          46.0519   94.2902   35.4096 H     1001  MIG1001     0.0636
     31 H          45.6005   91.4380   36.1761 H     1001  MIG1001     0.0511
@<TRIPOS>BOND
     1     3    10    1
     2    10     9    1
     3    10    11    1
     4     9    14    1
     5     1     6    1
     6     4    11    1
     7    14     8    1
     8    14    13    1
     9    11    12    1
    10     8     6    1
    11    12    13    1
    12    12     5    1
    13    13     7    1
    14     2     7    1
    15     1    15    1
    16     2    16    1
    17     3    17    1
    18     4    18    1
    19     5    19    1
    20     6    20    1
    21     6    21    1
    22     7    22    1
    23     7    23    1
    24     8    24    1
    25     8    25    1
    26     9    26    1
    27     9    27    1
    28    10    28    1
    29    11    29    1
    30    12    30    1
    31    13    31    1
